* This is a simple test circuit
V1 N1 0 10
R1 N1 N2 5
R2 N2 0 5
V2 N3 N2 5
R3 N3 0 5
R4 N3 N4 10
R5 N4 0 5
.tran 0 2s 0 0.2ms
.end