* This is a simple test circuit
V1 N1 0 10
R1 N1 N2 5
R2 0 N2 5
V2 N3 N2 5
R3 0 N3 5
R4 N4 N3 10
R5 0 N4 5
.tran 0 2s 0 0.5ms
.end
