*CRR test circuit
V1 N001 0 SINE(0 5 10)
R1 N002 N001 1
C1 N003 N002 1
C2 0 N003 1
.tran 0 2s 0 0.002s
.end
