* This is a simple test circuit
V1 N1 0 SINE(0 5 10)
R1 N1 N2 5
R2 N2 0 5
I1 N3 N2 5
L1 N3 0 5
R4 N3 N4 10
C1 N4 0 5
.tran 0 5s 0 0.1ms
.end
